Version 4
SHEET 1 880 680
WIRE 16 112 0 112
WIRE 0 144 0 112
WIRE 16 144 0 144
WIRE 48 224 48 192
FLAG -320 128 VDD
IOPIN -320 128 In
FLAG -320 208 0
FLAG -240 208 0
FLAG -240 128 Vin
IOPIN -240 128 In
FLAG 48 224 0
FLAG 48 64 VDD
IOPIN 48 64 In
FLAG 0 112 Vin
IOPIN 0 112 In
FLAG 160 128 Vout
IOPIN 160 128 Out
SYMBOL voltage -320 112 R0
WINDOW 123 0 0 Left 0
WINDOW 39 0 0 Left 0
SYMATTR InstName V1
SYMATTR Value 5
SYMBOL voltage -240 112 R0
SYMATTR InstName V2
SYMBOL AutoGenerated\\CMOSNOR 80 128 R0
SYMATTR InstName U1
TEXT -320 272 Left 2 !.dc V2 0 5 1E-3
