Version 4
SHEET 1 1032 680
WIRE -16 16 -96 16
WIRE 272 16 -16 16
WIRE 688 16 576 16
WIRE 272 80 272 16
WIRE 272 80 240 80
WIRE 688 128 688 16
WIRE 768 128 688 128
WIRE -96 192 -96 16
WIRE 768 192 768 128
WIRE -16 240 -16 16
WIRE 160 240 -16 240
WIRE 576 240 576 16
WIRE 592 240 576 240
WIRE 688 240 688 128
WIRE 688 240 672 240
WIRE 160 272 112 272
WIRE 768 272 672 272
WIRE 112 288 112 272
WIRE 768 304 768 272
FLAG 112 288 0
FLAG -96 272 0
FLAG 768 384 0
SYMBOL AutoGenerated\\CMOS4007 192 176 R0
SYMATTR InstName U1
SYMBOL AutoGenerated\\CMOS4007 624 176 R0
SYMATTR InstName U2
SYMBOL voltage -96 176 R0
SYMATTR InstName V1
SYMBOL voltage 768 288 R0
WINDOW 123 0 0 Left 0
WINDOW 39 0 0 Left 0
SYMATTR InstName V2
SYMATTR Value 5
SYMBOL voltage 768 288 R180
WINDOW 0 24 96 Left 2
WINDOW 3 24 16 Left 2
SYMATTR InstName V3
TEXT -72 464 Left 2 !.dc V3 0 5 0.01
