Version 4
SHEET 1 880 680
WIRE 400 80 272 80
WIRE 480 80 400 80
WIRE 480 112 480 80
WIRE 480 208 480 192
WIRE 192 240 -64 240
WIRE 192 272 128 272
WIRE 400 272 400 80
WIRE 400 272 272 272
WIRE -64 304 -64 240
WIRE 128 336 128 272
FLAG 128 336 0
FLAG -64 384 0
FLAG 480 208 0
SYMBOL AutoGenerated\\CMOS4007 224 176 R0
SYMATTR InstName U1
SYMBOL voltage -64 288 R0
WINDOW 3 24 44 Left 2
WINDOW 123 0 0 Left 0
WINDOW 39 0 0 Left 0
SYMATTR InstName V1
SYMATTR Value 5
SYMBOL voltage 480 96 R0
SYMATTR InstName V2
TEXT 328 -96 Left 2 !;op
TEXT 408 328 Left 2 !.dc V2 1 5 0.5
