Version 4
SHEET 1 880 680
WIRE 304 80 256 80
WIRE 352 80 304 80
WIRE 528 80 432 80
WIRE 528 176 528 80
WIRE 176 240 0 240
WIRE 176 272 112 272
WIRE 112 320 112 272
FLAG 112 320 0
FLAG 528 256 0
FLAG 0 320 0
FLAG 304 80 Vout
SYMBOL AutoGenerated\\CMOS4007 208 176 R0
SYMATTR InstName U1
SYMBOL voltage 0 224 R0
SYMATTR InstName V1
SYMBOL voltage 528 160 R0
WINDOW 123 0 0 Left 0
WINDOW 39 0 0 Left 0
SYMATTR InstName V2
SYMATTR Value 5
SYMBOL res 448 64 R90
WINDOW 0 0 56 VBottom 2
WINDOW 3 32 56 VTop 2
SYMATTR InstName R1
SYMATTR Value 10k
TEXT 112 472 Left 2 !.dc V1 0 5 0.001
