Version 4
SHEET 1 880 680
WIRE 464 80 416 80
WIRE 192 224 16 224
WIRE 416 224 416 80
WIRE 416 224 272 224
WIRE 16 240 16 224
WIRE 192 256 144 256
WIRE 272 256 256 256
WIRE 464 256 272 256
WIRE 144 304 144 256
FLAG 144 304 0
FLAG 16 320 0
FLAG 464 336 0
FLAG 464 160 0
SYMBOL AutoGenerated\\CMOS4007 224 160 R0
SYMATTR InstName U1
SYMBOL voltage 16 224 R0
WINDOW 123 0 0 Left 0
WINDOW 39 0 0 Left 0
SYMATTR InstName V1
SYMATTR Value 3
SYMBOL voltage 464 240 R0
WINDOW 123 0 0 Left 0
WINDOW 39 0 0 Left 0
SYMATTR InstName V2
SYMATTR Value 5
SYMBOL voltage 464 64 R0
SYMATTR InstName V3
TEXT 304 408 Left 2 !.dc V3 1 5 0.5
