Version 4
SHEET 1 880 680
WIRE 272 32 160 32
WIRE 624 32 512 32
WIRE 512 64 512 32
WIRE 528 64 512 64
WIRE -176 144 -176 128
WIRE 160 160 160 32
WIRE 176 160 160 160
WIRE -176 176 -176 144
WIRE -176 208 -176 176
WIRE -176 224 -176 208
WIRE 272 224 272 32
WIRE 272 224 256 224
WIRE 624 224 624 32
WIRE 624 224 608 224
WIRE 176 256 112 256
WIRE 192 256 176 256
WIRE 528 256 448 256
WIRE 112 320 112 256
WIRE 448 320 448 256
FLAG 112 320 0
FLAG 448 320 0
FLAG 608 256 VDD
IOPIN 608 256 In
FLAG 256 256 VDD
IOPIN 256 256 In
FLAG -320 128 VDD
IOPIN -320 128 In
FLAG -320 208 0
FLAG -240 208 0
FLAG -240 128 Vin
IOPIN -240 128 In
FLAG 176 224 A
IOPIN 176 224 In
FLAG 528 224 A
IOPIN 528 224 In
FLAG 528 128 B
IOPIN 528 128 In
FLAG 176 128 B
IOPIN 176 128 In
FLAG 528 96 VDD
IOPIN 528 96 In
FLAG -176 176 Vin
IOPIN -176 176 In
FLAG -176 144 A
IOPIN -176 144 In
FLAG -176 208 B
IOPIN -176 208 In
FLAG 176 192 Vout
IOPIN 176 192 Out
FLAG 512 32 Vout
IOPIN 512 32 Out
SYMBOL AutoGenerated\\CMOS4007 208 160 R0
SYMATTR InstName U1
SYMBOL AutoGenerated\\CMOS4007 560 160 R0
SYMATTR InstName U2
SYMBOL voltage -320 112 R0
WINDOW 123 0 0 Left 0
WINDOW 39 0 0 Left 0
SYMATTR InstName V1
SYMATTR Value 5
SYMBOL voltage -240 112 R0
SYMATTR InstName V2
TEXT -320 272 Left 2 !.dc V2 0 5 1E-3
