Version 4
SHEET 1 980 680
WIRE 848 -48 848 -80
WIRE 848 -48 800 -48
WIRE 720 112 640 112
WIRE 720 144 672 144
WIRE 672 192 672 144
FLAG 176 192 0
FLAG 176 112 Vin
IOPIN 176 112 In
FLAG 32 192 0
FLAG 32 112 vdd
IOPIN 32 112 In
FLAG 848 -160 vdd
IOPIN 848 -160 In
FLAG 672 192 0
FLAG 640 112 Vin
IOPIN 640 112 In
FLAG 848 16 0
FLAG 848 -48 out
SYMBOL voltage 176 96 R0
WINDOW 123 0 0 Left 0
WINDOW 39 0 0 Left 0
SYMATTR InstName V1
SYMATTR Value PULSE(0 5 0 1ns 1ns 0.5ms 10ms 10)
SYMBOL voltage 32 96 R0
WINDOW 123 0 0 Left 0
WINDOW 39 0 0 Left 0
SYMATTR InstName V2
SYMATTR Value 5
SYMBOL AutoGenerated\\CMOS4007 752 48 R0
SYMATTR InstName U1
SYMBOL res 832 -176 R0
SYMATTR InstName R1
SYMATTR Value 100k
SYMBOL cap 832 -48 R0
SYMATTR InstName C1
SYMATTR Value 10nf
TEXT 312 280 Left 2 !.tran 0 100ms 0s 10us
TEXT 16 320 Left 2 !.meas tf1 TRIG V(out)=4.5 TD=4ms FALL=1 TARG V(out)=0.5 TD=4ms FALL=1
TEXT 16 344 Left 2 !.meas tr1 TRIG V(out)=0.5 TD=4ms RISE=1 TARG V(out)=4.5 TD=4ms RISE=1
TEXT 24 368 Left 2 !.meas TRAN tphl TRIG V(Vin)=2.5 TD=4ms RISE=1 TARG V(out)=2.5 TD=4ms FALL=1
TEXT 48 400 Left 2 !.meas tplh TRIG V(Vin)=2.5 TD=4ms FALL=1 TARG V(out)=2.5 TD=4ms RISE=1
