Version 4
SHEET 1 880 680
WIRE 272 16 160 16
WIRE 272 64 272 16
WIRE 272 64 256 64
WIRE 176 128 -16 128
WIRE 160 160 160 16
WIRE 176 160 160 160
WIRE -16 192 -16 128
WIRE 176 192 -16 192
WIRE 176 224 64 224
WIRE 64 256 64 224
WIRE 176 256 128 256
WIRE 128 352 128 256
WIRE 0 0 0 0
FLAG 128 352 0
FLAG -16 272 0
FLAG 64 336 0
SYMBOL AutoGenerated\\CMOS4007 208 160 R0
SYMATTR InstName U1
SYMBOL voltage -16 176 R0
WINDOW 123 0 0 Left 0
WINDOW 39 0 0 Left 0
SYMATTR InstName V1
SYMATTR Value 5
SYMBOL voltage 64 240 R0
SYMATTR InstName V2
TEXT -48 376 Left 2 !.dc V2 0 5 0.1
