Version 4
SHEET 1 880 680
WIRE 688 48 672 48
WIRE 688 128 688 48
WIRE 736 128 688 128
WIRE 592 208 512 208
WIRE 688 208 688 128
WIRE 688 208 672 208
WIRE 592 240 544 240
WIRE 736 240 672 240
WIRE 544 288 544 240
FLAG 144 112 VDD
IOPIN 144 112 In
FLAG 144 192 0
FLAG 544 288 0
FLAG 736 240 vdd
IOPIN 736 240 In
FLAG 512 208 Vin
IOPIN 512 208 In
FLAG 240 112 Vin
IOPIN 240 112 In
FLAG 736 128 Vo
IOPIN 736 128 Out
FLAG 240 192 0
SYMBOL voltage 144 96 R0
WINDOW 123 0 0 Left 0
WINDOW 39 0 0 Left 0
SYMATTR InstName V1
SYMATTR Value 5
SYMBOL AutoGenerated\\CMOS4007 624 144 R0
SYMATTR InstName U1
SYMBOL voltage 240 96 R0
SYMATTR InstName V2
TEXT 72 316 Left 2 !.dc V2 0 5 0.01
